scratch/staticCvrEvaluation/sourceData/ACEC-Coloma.glm
clock {
	timezone PST+8PDT;
	starttime '2000-01-01 00:00:00';
	stoptime '2000-01-01 00:00:00';
};

#set minimum_timestep=60;
#set profiler=1;
#set relax_naming_rules=1;
module generators;
module tape;
module residential {
	implicit_enduses NONE;
};

module powerflow {
	solver_method NR;
	NR_iteration_limit 50;
};

object node {
	phases ABCN;
	name COLOMA SUB;
	bustype SWING;
	longitude 8.41372185482;
	nominal_voltage 7200.0;
	latitude 611.857590486;
};

object regulator_configuration {
	Control OUTPUT_VOLTAGE;
	Type A;
	raise_taps 16.0;
	name Coloma Bus Regs-CONFIG;
	band_center 120.0;
	current_transducer_ratio 500;
	tap_pos_B 1;
	tap_pos_C 1;
	time_delay 30.0;
	connect_type WYE_WYE;
	regulation 0.1;
	CT_phase ABC;
	power_transducer_ratio 60.0;
	lower_taps 16.0;
	tap_pos_A 1;
	control_level INDIVIDUAL;
	PT_phase ABC;
	band_width 2.000004;
};

object regulator {
	phases ACB;
	from COLOMA SUB;
	name Coloma Bus Regs;
	longitude 0.0;
	to nodeCOLOMA4Coloma Bus Regs;
	latitude 634.339320767;
	configuration Coloma Bus Regs-CONFIG;
};

object fuse {
	phases ACB;
	from nodeCOLOMA4Coloma Bus Regs;
	name COLOMA4;
	current_limit 9999.0 A;
	longitude 8.41372185482;
	to node948739COLOMA4;
	latitude 612.449729836;
};

object underground_line {
	phases ACB;
	from node948739COLOMA4;
	name 948739;
	longitude 10.6284016434;
	to node824694948739;
	length 70;
	latitude 610.910167526;
	configuration 923991-LINECONFIG;
};

object underground_line {
	phases ACB;
	from node824694948739;
	name 824694;
	to nodeRCMA4-R0001x1824694;
	longitude 11.7730676016;
	length 70;
	latitude 609.340998248;
	configuration 923991-LINECONFIG;
};

object fuse {
	phases ACB;
	from nodeRCMA4-R0001x1824694;
	name RCMA4-R0001x1;
	current_limit 9999.0 A;
	longitude 11.7730676016;
	to node984636RCMA4-R0001x1;
	latitude 609.340998248;
};

object underground_line {
	phases ACB;
	from node984636RCMA4-R0001x1;
	name 984636;
	longitude 12.4698207935;
	to node984637984636;
	length 133;
	latitude 612.627371641;
	configuration 923991-LINECONFIG;
};

object underground_line {
	phases ACB;
	from node984637984636;
	name 984637;
	longitude 12.4947048361;
	to node984634984637;
	length 10;
	latitude 613.189904024;
	configuration 923991-LINECONFIG;
};

object underground_line {
	phases ACB;
	from node984634984637;
	name 984634;
	longitude 12.8679654746;
	to node12049x1-B984634;
	length 10;
	latitude 612.834620414;
	configuration 923991-LINECONFIG;
};

object underground_line {
	phases ACB;
	from node984634984637;
	name 984638;
	longitude 12.7186612192;
	to node984639984638;
	length 10;
	latitude 613.485973699;
	configuration 923991-LINECONFIG;
};

object underground_line {
	phases ACB;
	from node984639984638;
	name 984639;
	longitude 31.929142082;
	to node824697984639;
	length 781;
	latitude 613.693222472;
	configuration 923991-LINECONFIG;
};

object underground_line {
	phases B;
	from node824697984639;
	name 824697;
	to nodeT21526824697;
	longitude 32.4268229334;
	length 26;
	latitude 613.189904024;
	configuration 825117-LINECONFIG;
};

object underground_line {
	phases ACB;
	from node824697984639;
	name 824700;
	longitude 34.5170825091;
	to node824701824700;
	length 257;
	latitude 620.650859836;
	configuration 923991-LINECONFIG;
};

object overhead_line {
	phases ACBN;
	from node824701824700;
	name 824701;
	longitude 34.641502722;
	to node824702824701;
	length 129;
	latitude 624.470158644;
	configuration 824894-LINECONFIG;
};

object overhead_line {
	phases ACBN;
	from node824702824701;
	name 824702;
	longitude 34.641502722;
	to node824704824702;
	length 30;
	latitude 625.358367669;
	configuration 824894-LINECONFIG;
};

object overhead_line {
	phases ACBN;
	from node824704824702;
	name 824704;
	longitude 34.9898793179;
	to node824705824704;
	length 752;
	latitude 647.622807234;
	configuration 824894-LINECONFIG;
};

object overhead_line {
	phases ACB;
	from node824705824704;
	name 824705;
	longitude 38.4736452775;
	to node1808-19-005824705;
	length 140;
	latitude 647.622807234;
	configuration 824830-LINECONFIG;
};

object overhead_line {
	phases ACBN;
	from node824705824704;
	name 824707;
	longitude 35.3133718713;
	to node979614824707;
	length 1574;
	latitude 694.253781056;
	configuration 824894-LINECONFIG;
};

object underground_line {
	phases ACB;
	from node979614824707;
	name 979614;
	longitude 35.2138357011;
	to node979615979614;
	length 20;
	latitude 694.697885569;
	configuration 923991-LINECONFIG;
};

object underground_line {
	phases ACB;
	from node979615979614;
	name 979615;
	longitude 11.9970239847;
	to nodeT28934979615;
	length 960;
	latitude 694.461029829;
	configuration 825456-LINECONFIG;
};

object underground_line {
	phases ACB;
	from node979615979614;
	name 979617;
	longitude 37.9510803836;
	to nodeT28933979617;
	length 140;
	latitude 695.260417952;
	configuration 825456-LINECONFIG;
};

object overhead_line {
	phases ACB;
	from node979614824707;
	name 979839;
	longitude 35.2636037862;
	to node824712979839;
	length 50;
	latitude 695.349238854;
	configuration 824894-LINECONFIG;
};

object underground_line {
	phases ACB;
	from node824712979839;
	name 824712;
	longitude 35.1889516585;
	to node824713824712;
	length 1036;
	latitude 724.837778491;
	configuration 825456-LINECONFIG;
};

object underground_line {
	phases B;
	from node824713824712;
	name 824713;
	longitude 28.7439846333;
	to node1808-19-008824713;
	length 392;
	latitude 733.542226937;
	configuration 825117-LINECONFIG;
};

object underground_line {
	phases C;
	from node824713824712;
	name 824715;
	to node824716824715;
	longitude 35.1889516585;
	length 830;
	latitude 749.411561521;
	configuration 925975-LINECONFIG;
};

object underground_line {
	phases C;
	from node824716824715;
	name 824716;
	longitude 36.4580378295;
	to nodeR7229x1824716;
	length 20;
	latitude 749.411561521;
	configuration 925975-LINECONFIG;
};

object fuse {
	phases C;
	from nodeR7229x1824716;
	name R7229x1;
	current_limit 9999.0 A;
	longitude 36.4580378295;
	to node920601R7229x1;
	latitude 749.411561521;
};

object overhead_line {
	phases CN;
	from node920601R7229x1;
	name 920601;
	longitude 55.0713016707;
	to node824717920601;
	length 778;
	latitude 749.529989391;
	configuration 824825-LINECONFIG;
};

object overhead_line {
	phases CN;
	from node824717920601;
	name 824717;
	longitude 55.4196782666;
	to node824718824717;
	length 1237;
	latitude 786.153808196;
	configuration 824825-LINECONFIG;
};

object overhead_line {
	phases CN;
	from node824718824717;
	name 824718;
	longitude 63.6065282717;
	to node824720824718;
	length 433;
	latitude 794.473366065;
	configuration 824825-LINECONFIG;
};

object overhead_line {
	phases CN;
	from node824720824718;
	name 824720;
	longitude 63.6065282717;
	to node824721824720;
	length 1357;
	latitude 834.650020972;
	configuration 824825-LINECONFIG;
};

object overhead_line {
	phases CN;
	from node824721824720;
	name 824721;
	longitude 84.9321527528;
	to node824722824721;
	length 1076;
	latitude 853.894549851;
	configuration 824825-LINECONFIG;
};

object overhead_line {
	phases CN;
	from node824722824721;
	name 824722;
	to node824723824722;
	longitude 111.632730429;
	length 1073;
	latitude 853.420838371;
	configuration 824825-LINECONFIG;
};

object overhead_line {
	phases CN;
	from node824723824722;
	name 824723;
	longitude 129.399936823;
	to node906386824723;
	length 714;
	latitude 852.947126891;
	configuration 824825-LINECONFIG;
};

object overhead_line {
	phases CN;
	from node906386824723;
	name 906386;
	longitude 137.736091083;
	to node824726906386;
	length 335;
	latitude 852.71027115;
	configuration 824825-LINECONFIG;
};

object overhead_line {
	phases CN;
	from node824726906386;
	name 824726;
	longitude 147.092491089;
	to node824727824726;
	length 376;
	latitude 852.47341541;
	configuration 824825-LINECONFIG;
};

object overhead_line {
	phases CN;
	from node824727824726;
	name 824727;
	longitude 160.903134714;
	to node824728824727;
	length 555;
	latitude 852.088524833;
	configuration 824825-LINECONFIG;
};

object overhead_line {
	phases CN;
	from node824728824727;
	name 824728;
	longitude 175.534951745;
	to node824729824728;
	length 588;
	latitude 852.029310898;
	configuration 824825-LINECONFIG;
};

object overhead_line {
	phases CN;
	from node824729824728;
	name 824729;
	longitude 179.068485789;
	to node824730824729;
	length 142;
	latitude 852.029310898;
	configuration 824825-LINECONFIG;
};

object overhead_line {
	phases CN;
	from node824730824729;
	name 824730;
	longitude 186.807423028;
	to node824731824730;
	length 311;
	latitude 851.970096963;
	configuration 824825-LINECONFIG;
};

object overhead_line {
	phases CN;
	from node824731824730;
	name 824731;
	to node824732824731;
	longitude 186.011133666;
	length 281;
	latitude 860.230440897;
	configuration 824825-LINECONFIG;
};

object overhead_line {
	phases CN;
	from node824732824731;
	name 824732;
	longitude 184.343902814;
	to node824733824732;
	length 282;
	latitude 868.342749994;
	configuration 824825-LINECONFIG;
};

object overhead_line {
	phases CN;
	from node824733824732;
	name 824733;
	longitude 179.292442172;
	to node824734824733;
	length 592;
	latitude 884.804223927;
	configuration 824825-LINECONFIG;
};

object overhead_line {
	phases C;
	from node824734824733;
	name 824734;
	longitude 176.505429405;
	to node824738824734;
	length 242;
	latitude 891.140114974;
	configuration 824825-LINECONFIG;
};

object underground_line {
	phases C;
	from node824738824734;
	name 824738;
	longitude 175.186575149;
	to nodeF7974x1824738;
	length 50;
	latitude 890.518368656;
	configuration 925975-LINECONFIG;
};

object fuse {
	phases C;
	from nodeF7974x1824738;
	name F7974x1;
	current_limit 9999.0 A;
	longitude 175.186575149;
	to node824739F7974x1;
	latitude 890.518368656;
};

object underground_line {
	phases C;
	from node824739F7974x1;
	name 824739;
	longitude 147.3910996;
	to node824740824739;
	length 1217;
	latitude 894.071204757;
	configuration 925975-LINECONFIG;
};

object underground_line {
	phases C;
	from node824740824739;
	name 824740;
	longitude 134.998846401;
	to node824741824740;
	length 816;
	latitude 913.197305766;
	configuration 925975-LINECONFIG;
};

object underground_line {
	phases C;
	from node824741824740;
	name 824741;
	to node824742824741;
	longitude 125.542910225;
	length 380;
	latitude 913.434161506;
	configuration 925975-LINECONFIG;
};

object underground_line {
	phases C;
	from node824742824741;
	name 824742;
	longitude 129.399936823;
	to nodeFCMA4-F008x1824742;
	length 178;
	latitude 916.009967679;
	configuration 925975-LINECONFIG;
};

object fuse {
	phases C;
	from nodeFCMA4-F008x1824742;
	name FCMA4-F008x1;
	current_limit 9999.0 A;
	longitude 129.399936823;
	to node824743FCMA4-F008x1;
	latitude 916.009967679;
};

object underground_line {
	phases C;
	from node824743FCMA4-F008x1;
	name 824743;
	longitude 128.578763418;
	to node1808-0151824743;
	length 699;
	latitude 936.675630998;
	configuration 925975-LINECONFIG;
};

object underground_line {
	phases C;
	from node824742824741;
	name 824745;
	longitude 118.32653788;
	to node1808-0164824745;
	length 305;
	latitude 910.621499593;
	configuration 925975-LINECONFIG;
};

object underground_line {
	phases C;
	from node824732824731;
	name 905282;
	longitude 186.558582602;
	to nodeF5088x1905282;
	length 22;
	latitude 860.260047865;
	configuration 925975-LINECONFIG;
};

object fuse {
	phases C;
	from nodeF5088x1905282;
	name F5088x1;
	current_limit 9999.0 A;
	longitude 186.558582602;
	to node905284F5088x1;
	latitude 860.260047865;
};

object underground_line {
	phases C;
	from node905284F5088x1;
	name 905284;
	longitude 197.283604949;
	to nodeT5087905284;
	length 432;
	latitude 861.089042955;
	configuration 925975-LINECONFIG;
};

object overhead_line {
	phases CN;
	from node824731824730;
	name 824747;
	longitude 196.984996439;
	to node824748824747;
	length 409;
	latitude 851.496385483;
	configuration 824825-LINECONFIG;
};

object overhead_line {
	phases CN;
	from node824748824747;
	name 824748;
	longitude 199.597820908;
	to node824750824748;
	length 112;
	latitude 850.312106782;
	configuration 824825-LINECONFIG;
};

object overhead_line {
	phases CN;
	from node824750824748;
	name 824750;
	longitude 200.618066654;
	to node824751824750;
	length 100;
	latitude 847.617872739;
	configuration 824825-LINECONFIG;
};

object overhead_line {
	phases CN;
	from node824751824750;
	name 824751;
	longitude 200.792254952;
	to node824752824751;
	length 175;
	latitude 842.436653426;
	configuration 824825-LINECONFIG;
};

object overhead_line {
	phases CN;
	from node824752824751;
	name 824752;
	longitude 200.916675164;
	to node824755824752;
	length 300;
	latitude 833.554563174;
	configuration 824825-LINECONFIG;
};

object overhead_line {
	phases CN;
	from node824755824752;
	name 824755;
	longitude 201.041095377;
	to node824759824755;
	length 309;
	latitude 824.406010214;
	configuration 824825-LINECONFIG;
};

object overhead_line {
	phases CN;
	from node824759824755;
	name 824759;
	to node900841824759;
	longitude 201.140631548;
	length 322;
	latitude 814.872566677;
	configuration 949086-LINECONFIG;
};

object overhead_line {
	phases CN;
	from node900841824759;
	name 900841;
	longitude 201.190399633;
	to node824760900841;
	length 190;
	latitude 811.290123609;
	configuration 949086-LINECONFIG;
};

object overhead_line {
	phases CN;
	from node824760900841;
	name 824760;
	longitude 201.339703888;
	to node900842824760;
	length 315;
	latitude 801.993535812;
	configuration 949086-LINECONFIG;
};

object overhead_line {
	phases CN;
	from node900842824760;
	name 900842;
	longitude 201.464124101;
	to node949086900842;
	length 335;
	latitude 792.28245047;
	configuration 949086-LINECONFIG;
};

object line_configuration {
	name 949086-LINECONFIG;
	spacing 825694-LINESPACING;
	conductor_N 949086_conductor_N;
	conductor_C 949086_conductor_N;
};

object overhead_line_conductor {
	diameter 0.721;
	name 949086_conductor_N;
	geometric_mean_radius 0.00504;
	resistance 1.65;
};

object overhead_line {
	phases CN;
	from node949086900842;
	name 949086;
	longitude 201.563660271;
	to node824761949086;
	length 315;
	latitude 784.436604081;
	configuration 949086-LINECONFIG;
};

object overhead_line {
	phases CN;
	from node824761949086;
	name 824761;
	longitude 208.506308148;
	to node914176824761;
	length 325;
	latitude 784.495818016;
	configuration 914176-LINECONFIG;
};

object line_configuration {
	name 914176-LINECONFIG;
	spacing 825694-LINESPACING;
	conductor_N 824894_conductor_N;
	conductor_C 824894_conductor_C;
};

object overhead_line {
	phases C;
	from node914176824761;
	name 914176;
	longitude 216.095941131;
	to node1808-29-023914176;
	length 300;
	latitude 784.614245886;
	configuration 914176-LINECONFIG;
};

object underground_line {
	phases C;
	from node824761949086;
	name 949050;
	to node12900x1-Bx1949050;
	longitude 201.538776229;
	length 659;
	latitude 783.696429893;
	configuration 925975-LINECONFIG;
};

object underground_line {
	phases C;
	from node824760900841;
	name 824798;
	longitude 202.758094314;
	to nodeFCMA4-F074x1824798;
	length 66;
	latitude 809.395277689;
	configuration 925975-LINECONFIG;
};

object fuse {
	phases C;
	from nodeFCMA4-F074x1824798;
	name FCMA4-F074x1;
	current_limit 9999.0 A;
	longitude 202.758094314;
	to node824799FCMA4-F074x1;
	latitude 809.395277689;
};

object underground_line {
	phases C;
	from node824799FCMA4-F074x1;
	name 824799;
	longitude 204.226252826;
	to node824800824799;
	length 58;
	latitude 809.306456786;
	configuration 925975-LINECONFIG;
};

object underground_line {
	phases C;
	from node824800824799;
	name 824800;
	longitude 218.833185814;
	to node824802824800;
	length 587;
	latitude 809.128814981;
	configuration 925975-LINECONFIG;
};

object underground_line {
	phases C;
	from node824802824800;
	name 824802;
	longitude 214.652666662;
	to node1808-0088824802;
	length 194;
	latitude 812.030297797;
	configuration 925975-LINECONFIG;
};

object overhead_line {
	phases C;
	from node824759824755;
	name 824805;
	longitude 207.212337934;
	to node1808-29-032824805;
	length 248;
	latitude 824.376403247;
	configuration 824825-LINECONFIG;
};

object underground_line {
	phases C;
	from node824759824755;
	name 824809;
	to nodeFCMA4-F056x1824809;
	longitude 200.319458143;
	length 49;
	latitude 823.251338482;
	configuration 925975-LINECONFIG;
};

object fuse {
	phases C;
	from nodeFCMA4-F056x1824809;
	name FCMA4-F056x1;
	current_limit 9999.0 A;
	longitude 200.319458143;
	to node824810FCMA4-F056x1;
	latitude 823.251338482;
};

object underground_line {
	phases C;
	from node824810FCMA4-F056x1;
	name 824810;
	longitude 191.361202818;
	to node1808-0144824810;
	length 360;
	latitude 823.251338482;
	configuration 925975-LINECONFIG;
};

object underground_line {
	phases C;
	from node824727824726;
	name 824814;
	longitude 148.46111343;
	to nodeFCMA4-F107x1824814;
	length 78;
	latitude 854.131405591;
	configuration 925975-LINECONFIG;
};

object fuse {
	phases C;
	from nodeFCMA4-F107x1824814;
	name FCMA4-F107x1;
	current_limit 9999.0 A;
	longitude 148.46111343;
	to node824815FCMA4-F107x1;
	latitude 854.131405591;
};

object underground_line {
	phases C;
	from node824815FCMA4-F107x1;
	name 824815;
	longitude 147.440867685;
	to node824816824815;
	length 131;
	latitude 850.46014162;
	configuration 925975-LINECONFIG;
};

object underground_line {
	phases C;
	from node824816824815;
	name 824816;
	longitude 147.3910996;
	to node1808-29-034824816;
	length 403;
	latitude 862.391749525;
	configuration 925975-LINECONFIG;
};

object underground_line {
	phases C;
	from node824816824815;
	name 824818;
	to node824820824818;
	longitude 147.440867685;
	length 198;
	latitude 844.597962054;
	configuration 925975-LINECONFIG;
};

object underground_line {
	phases C;
	from node824820824818;
	name 824820;
	longitude 159.434976203;
	to node1808-0150824820;
	length 534;
	latitude 837.788359527;
	configuration 925975-LINECONFIG;
};

object underground_line {
	phases C;
	from node906386824723;
	name 911237;
	longitude 130.096690015;
	to node911238911237;
	length 45;
	latitude 853.509659273;
	configuration 925975-LINECONFIG;
};

object underground_line {
	phases C;
	from node911238911237;
	name 911238;
	to nodeT4114911238;
	longitude 130.096690015;
	length 280;
	latitude 861.799610175;
	configuration 925975-LINECONFIG;
};

object underground_line {
	phases C;
	from node824722824721;
	name 824822;
	longitude 84.9072687103;
	to nodeF18632x1824822;
	length 70;
	latitude 853.095161728;
	configuration 825688-LINECONFIG;
};

object fuse {
	phases C;
	from nodeF18632x1824822;
	name F18632x1;
	current_limit 9999.0 A;
	longitude 84.9072687103;
	to node824823F18632x1;
	latitude 853.095161728;
};

object underground_line {
	phases C;
	from node824823F18632x1;
	name 824823;
	longitude 84.9321527528;
	to node900921824823;
	length 17;
	latitude 852.147738768;
	configuration 825688-LINECONFIG;
};

object underground_line {
	phases C;
	from node900921824823;
	name 900921;
	to nodeT18630900921;
	longitude 119.520971923;
	length 2486;
	latitude 799.032839061;
	configuration 825688-LINECONFIG;
};

object overhead_line {
	phases CN;
	from node824722824721;
	name 910307;
	longitude 82.1949080703;
	to node910308910307;
	length 250;
	latitude 860.55611754;
	configuration 825694-LINECONFIG;
};

object overhead_line {
	phases C;
	from node910308910307;
	name 910308;
	longitude 82.1949080703;
	to node1808-20-011910308;
	length 250;
	latitude 867.957859416;
	configuration 825694-LINECONFIG;
};

object line_configuration {
	name 824825-LINECONFIG;
	spacing 825694-LINESPACING;
	conductor_N 913826_conductor_N;
	conductor_C 913826_conductor_N;
};

object overhead_line {
	phases C;
	from node824717920601;
	name 824825;
	longitude 63.4572240162;
	to node1808-20-008824825;
	length 338;
	latitude 748.819422171;
	configuration 824825-LINECONFIG;
};

object underground_line {
	phases ACB;
	from node824713824712;
	name 824827;
	longitude 9.68280802582;
	to node974368824827;
	length 1032;
	latitude 721.196121487;
	configuration 825456-LINECONFIG;
};

object underground_line {
	phases ACB;
	from node974368824827;
	name 974368;
	longitude 7.54278036493;
	to nodeT29595974368;
	length 678;
	latitude 701.270632355;
	configuration 825456-LINECONFIG;
};

object underground_line {
	phases ACB;
	from node974368824827;
	name 974371;
	longitude 7.79162079061;
	to nodeT29596974371;
	length 668;
	latitude 736.621351558;
	configuration 825456-LINECONFIG;
};

object line_configuration {
	name 824830-LINECONFIG;
	spacing 824894-LINESPACING;
	conductor_N 825694_conductor_N;
	conductor_A 825694_conductor_N;
	conductor_C 825694_conductor_N;
	conductor_B 825694_conductor_N;
};

object overhead_line {
	phases ACB;
	from node824701824700;
	name 824830;
	longitude 39.5934271931;
	to node1808-19-009824830;
	length 204;
	latitude 620.591645901;
	configuration 824830-LINECONFIG;
};

object underground_line {
	phases ACB;
	from node824697984639;
	name 824833;
	longitude 38.8220218735;
	to node824834824833;
	length 281;
	latitude 612.331301966;
	configuration 923991-LINECONFIG;
};

object underground_line {
	phases ACB;
	from node824834824833;
	name 824834;
	longitude 38.9464420863;
	to node533x1-Bx1824834;
	length 10;
	latitude 612.331301966;
	configuration 824901-LINECONFIG;
};

object switch {
	status CLOSED;
	phases ACB;
	from node533x1-Bx1824834;
	name 533x1-Bx1;
	longitude 38.9464420863;
	to node533x1-Ax1533x1-Bx1;
	latitude 612.331301966;
};

object switch {
	status CLOSED;
	phases ACB;
	from node533x1-Ax1533x1-Bx1;
	name 533x1-Ax1;
	longitude 38.9464420863;
	to node824835533x1-Ax1;
	latitude 612.331301966;
};

object overhead_line {
	phases ACBN;
	from node824835533x1-Ax1;
	name 824835;
	longitude 40.812745279;
	to node824836824835;
	length 75;
	latitude 612.331301966;
	configuration 824894-LINECONFIG;
};

object overhead_line {
	phases ACBN;
	from node824836824835;
	name 824836;
	longitude 47.1332920913;
	to node824837824836;
	length 254;
	latitude 612.331301966;
	configuration 824894-LINECONFIG;
};

object overhead_line {
	phases ACBN;
	from node824837824836;
	name 824837;
	to node824838824837;
	longitude 130.743675121;
	length 3360;
	latitude 612.479336804;
	configuration 824894-LINECONFIG;
};

object underground_line {
	phases ACB;
	from node824838824837;
	name 824838;
	longitude 130.395298525;
	to nodeFCMA4-F016x1824838;
	length 117;
	latitude 615.913745035;
	configuration 825456-LINECONFIG;
};

object fuse {
	phases ACB;
	from nodeFCMA4-F016x1824838;
	name FCMA4-F016x1;
	current_limit 9999.0 A;
	longitude 130.395298525;
	to node824839FCMA4-F016x1;
	latitude 615.913745035;
};

object underground_line {
	phases ACB;
	from node824839FCMA4-F016x1;
	name 824839;
	longitude 137.362830445;
	to node1808-19-010824839;
	length 2136;
	latitude 678.621302213;
	configuration 825456-LINECONFIG;
};

object overhead_line {
	phases ACBN;
	from node824838824837;
	name 824842;
	longitude 140.199611297;
	to node824843824842;
	length 380;
	latitude 612.449729836;
	configuration 824894-LINECONFIG;
};

object overhead_line {
	phases ACBN;
	from node824843824842;
	name 824843;
	to node824844824843;
	longitude 157.344716627;
	length 689;
	latitude 612.508943771;
	configuration 824894-LINECONFIG;
};

object overhead_line {
	phases ACBN;
	from node824844824843;
	name 824844;
	longitude 237.869478379;
	to node824847824844;
	length 3236;
	latitude 612.834620414;
	configuration 824894-LINECONFIG;
};

object overhead_line {
	phases ACBN;
	from node824847824844;
	name 824847;
	longitude 263.0770135;
	to node824848824847;
	length 1014;
	latitude 613.782043374;
	configuration 824894-LINECONFIG;
};

object underground_line {
	phases C;
	from node824848824847;
	name 824848;
	longitude 263.201433713;
	to nodeR7231x1824848;
	length 118;
	latitude 610.288421208;
	configuration 925975-LINECONFIG;
};

object fuse {
	phases C;
	from nodeR7231x1824848;
	name R7231x1;
	current_limit 9999.0 A;
	longitude 263.201433713;
	to node824849R7231x1;
	latitude 610.288421208;
};

object underground_line {
	phases C;
	from node824849R7231x1;
	name 824849;
	longitude 268.675923078;
	to node824850824849;
	length 2623;
	latitude 532.895808147;
	configuration 925975-LINECONFIG;
};

object underground_line {
	phases C;
	from node824850824849;
	name 824850;
	longitude 310.008317785;
	to node1807-0244824850;
	length 1877;
	latitude 506.989711579;
	configuration 925975-LINECONFIG;
};

object overhead_line {
	phases CN;
	from node824850824849;
	name 824852;
	longitude 269.745936909;
	to node824853824852;
	length 301;
	latitude 524.07293183;
	configuration 825694-LINECONFIG;
};

object overhead_line {
	phases CN;
	from node824853824852;
	name 824853;
	longitude 270.019661377;
	to node824855824853;
	length 1294;
	latitude 485.761515877;
	configuration 825694-LINECONFIG;
};

object overhead_line {
	phases CN;
	from node824855824853;
	name 824855;
	longitude 270.069429462;
	to node824857824855;
	length 339;
	latitude 475.724753892;
	configuration 825694-LINECONFIG;
};

object overhead_line {
	phases CN;
	from node824857824855;
	name 824857;
	longitude 270.14408159;
	to node824858824857;
	length 317;
	latitude 466.339345193;
	configuration 825694-LINECONFIG;
};

object overhead_line {
	phases CN;
	from node824858824857;
	name 824858;
	longitude 270.392922016;
	to node824859824858;
	length 303;
	latitude 460.447558659;
	configuration 825694-LINECONFIG;
};

object overhead_line {
	phases CN;
	from node824859824858;
	name 824859;
	longitude 293.535081604;
	to node980396824859;
	length 930;
	latitude 460.832449236;
	configuration 825694-LINECONFIG;
};

object overhead_line {
	phases CN;
	from node980396824859;
	name 980396;
	longitude 300.975410332;
	to node980393980396;
	length 300;
	latitude 460.950877106;
	configuration 825694-LINECONFIG;
};

object overhead_line {
	phases CN;
	from node980393980396;
	name 980393;
	to node824860980393;
	longitude 301.000294375;
	length 143;
	latitude 457.930966421;
	configuration 825694-LINECONFIG;
};

object overhead_line {
	phases CN;
	from node824860980393;
	name 824860;
	longitude 301.124714588;
	to node923236824860;
	length 143;
	latitude 454.052453677;
	configuration 825694-LINECONFIG;
};

object overhead_line {
	phases CN;
	from node923236824860;
	name 923236;
	longitude 301.348670971;
	to node923237923236;
	length 264;
	latitude 446.177000321;
	configuration 825694-LINECONFIG;
};

object overhead_line {
	phases CN;
	from node923237923236;
	name 923237;
	longitude 301.821467779;
	to node923238923237;
	length 257;
	latitude 438.479188769;
	configuration 825694-LINECONFIG;
};

object overhead_line {
	phases CN;
	from node923238923237;
	name 923238;
	longitude 301.821467779;
	to node824862923238;
	length 293;
	latitude 429.80434729;
	configuration 825694-LINECONFIG;
};

object overhead_line {
	phases CN;
	from node824862923238;
	name 824862;
	longitude 301.945887992;
	to node923239824862;
	length 321;
	latitude 422.609854186;
	configuration 825694-LINECONFIG;
};

object overhead_line {
	phases CN;
	from node923239824862;
	name 923239;
	longitude 302.095192248;
	to node923240923239;
	length 252;
	latitude 415.119291407;
	configuration 825694-LINECONFIG;
};

object overhead_line {
	phases CN;
	from node923240923239;
	name 923240;
	longitude 302.269380546;
	to node923241923240;
	length 249;
	latitude 407.747156497;
	configuration 825694-LINECONFIG;
};

object overhead_line {
	phases CN;
	from node923241923240;
	name 923241;
	to node923242923241;
	longitude 302.393800759;
	length 258;
	latitude 400.108558881;
	configuration 825694-LINECONFIG;
};

object overhead_line {
	phases C;
	from node923242923241;
	name 923242;
	longitude 302.567989057;
	to nodeF7815x1923242;
	length 270;
	latitude 393.298956354;
	configuration 825694-LINECONFIG;
};

object fuse {
	phases C;
	from nodeF7815x1923242;
	name F7815x1;
	current_limit 9999.0 A;
	longitude 302.567989057;
	to node922977F7815x1;
	latitude 393.298956354;
};

object underground_line {
	phases C;
	from node922977F7815x1;
	name 922977;
	longitude 303.065669908;
	to node922975922977;
	length 56;
	latitude 392.114677654;
	configuration 925975-LINECONFIG;
};

object underground_line {
	phases C;
	from node922975922977;
	name 922975;
	longitude 303.015901823;
	to node922976922975;
	length 150;
	latitude 386.607781698;
	configuration 925975-LINECONFIG;
};

object underground_line {
	phases C;
	from node922976922975;
	name 922976;
	longitude 332.379072054;
	to nodeT12925922976;
	length 1320;
	latitude 387.022279243;
	configuration 925975-LINECONFIG;
};

object underground_line {
	phases C;
	from node922976922975;
	name 922978;
	to node922979922978;
	longitude 298.934918842;
	length 1300;
	latitude 350.753744048;
	configuration 925975-LINECONFIG;
};

object underground_line {
	phases C;
	from node922979922978;
	name 922979;
	longitude 297.46676033;
	to node922980922979;
	length 30;
	latitude 350.72413708;
	configuration 925975-LINECONFIG;
};

object underground_line {
	phases C;
	from node922980922979;
	name 922980;
	longitude 281.590741171;
	to node1807-0304922980;
	length 597;
	latitude 349.628679283;
	configuration 925975-LINECONFIG;
};

object underground_line {
	phases C;
	from node922979922978;
	name 922981;
	longitude 299.581903948;
	to node824871922981;
	length 25;
	latitude 348.533221485;
	configuration 925975-LINECONFIG;
};

object underground_line {
	phases C;
	from node824871922981;
	name 824871;
	longitude 299.482367778;
	to node922983824871;
	length 372;
	latitude 339.739952135;
	configuration 825688-LINECONFIG;
};

object underground_line {
	phases C;
	from node922983824871;
	name 922983;
	longitude 299.183759267;
	to node1807-0292922983;
	length 1250;
	latitude 302.731242752;
	configuration 825688-LINECONFIG;
};

object underground_line {
	phases C;
	from node980393980396;
	name 980395;
	longitude 330.388348648;
	to node980394980395;
	length 1162;
	latitude 461.454195554;
	configuration 925975-LINECONFIG;
};

object overhead_line {
	phases CN;
	from node980394980395;
	name 980394;
	longitude 333.075825245;
	to node824878980394;
	length 246;
	latitude 465.954454615;
	configuration 825694-LINECONFIG;
};

object overhead_line {
	phases C;
	from node824878980394;
	name 824878;
	longitude 334.145839076;
	to node1807-36-005824878;
	length 101;
	latitude 467.67165873;
	configuration 825694-LINECONFIG;
};

object underground_line {
	phases C;
	from node824878980394;
	name 824880;
	longitude 332.702564607;
	to nodeF5402x1824880;
	length 15;
	latitude 466.01366855;
	configuration 925975-LINECONFIG;
};

object fuse {
	phases C;
	from nodeF5402x1824880;
	name F5402x1;
	current_limit 9999.0 A;
	longitude 332.702564607;
	to node824881F5402x1;
	latitude 466.01366855;
};

object underground_line {
	phases C;
	from node824881F5402x1;
	name 824881;
	longitude 317.075385874;
	to node1807-0299824881;
	length 553;
	latitude 466.280131258;
	configuration 925975-LINECONFIG;
};

object overhead_line {
	phases CN;
	from node824850824849;
	name 824883;
	longitude 264.246563501;
	to node824884824883;
	length 198;
	latitude 535.442007352;
	configuration 825694-LINECONFIG;
};

object overhead_line {
	phases CN;
	from node824884824883;
	name 824884;
	longitude 231.897308162;
	to node824885824884;
	length 1300;
	latitude 535.59004219;
	configuration 825694-LINECONFIG;
};

object overhead_line {
	phases C;
	from node824885824884;
	name 824885;
	longitude 227.51771667;
	to node1807-25-007824885;
	length 176;
	latitude 535.59004219;
	configuration 825694-LINECONFIG;
};

object underground_line {
	phases C;
	from node824885824884;
	name 824887;
	longitude 231.225439013;
	to nodeF18666x1824887;
	length 38;
	latitude 536.389430313;
	configuration 925975-LINECONFIG;
};

object fuse {
	phases C;
	from nodeF18666x1824887;
	name F18666x1;
	current_limit 9999.0 A;
	longitude 231.225439013;
	to node824888F18666x1;
	latitude 536.389430313;
};

object underground_line {
	phases C;
	from node824888F18666x1;
	name 824888;
	longitude 204.251136869;
	to node824889824888;
	length 1084;
	latitude 536.389430313;
	configuration 925975-LINECONFIG;
};

object underground_line {
	phases C;
	from node824889824888;
	name 824889;
	longitude 175.261227276;
	to node824890824889;
	length 1165;
	latitude 536.389430313;
	configuration 925975-LINECONFIG;
};

object underground_line {
	phases C;
	from node824890824889;
	name 824890;
	longitude 165.70575493;
	to node950220824890;
	length 384;
	latitude 536.922355728;
	configuration 925975-LINECONFIG;
};

object underground_line {
	phases C;
	from node950220824890;
	name 950220;
	longitude 148.013200664;
	to nodeT11989950220;
	length 770;
	latitude 544.353704572;
	configuration 925975-LINECONFIG;
};

object underground_line {
	phases C;
	from node824848824847;
	name 825629;
	longitude 263.74888265;
	to nodeR7230x1825629;
	length 47;
	latitude 614.907108139;
	configuration 925975-LINECONFIG;
};

object fuse {
	phases C;
	from nodeR7230x1825629;
	name R7230x1;
	current_limit 9999.0 A;
	longitude 263.74888265;
	to node972841R7230x1;
	latitude 614.907108139;
};

object underground_line {
	phases C;
	from node972841R7230x1;
	name 972841;
	longitude 268.30266244;
	to node825630972841;
	length 1131;
	latitude 646.112851891;
	configuration 925975-LINECONFIG;
};

object underground_line {
	phases C;
	from node825630972841;
	name 825630;
	longitude 267.182880524;
	to node825631825630;
	length 1977;
	latitude 701.833164738;
	configuration 925975-LINECONFIG;
};

object underground_line {
	phases C;
	from node825631825630;
	name 825631;
	longitude 266.958924141;
	to node825632825631;
	length 384;
	latitude 713.202240261;
	configuration 925975-LINECONFIG;
};

object underground_line {
	phases C;
	from node825632825631;
	name 825632;
	longitude 271.487819889;
	to node825633825632;
	length 365;
	latitude 722.558041993;
	configuration 925975-LINECONFIG;
};

object underground_line {
	phases C;
	from node825633825632;
	name 825633;
	longitude 275.66833904;
	to node825634825633;
	length 336;
	latitude 731.173669537;
	configuration 925975-LINECONFIG;
};

object underground_line {
	phases C;
	from node825634825633;
	name 825634;
	to node825635825634;
	longitude 279.848858192;
	length 336;
	latitude 739.789297081;
	configuration 925975-LINECONFIG;
};

object underground_line {
	phases C;
	from node825635825634;
	name 825635;
	longitude 284.327985854;
	to node825636825635;
	length 366;
	latitude 749.233919716;
	configuration 925975-LINECONFIG;
};

object underground_line {
	phases C;
	from node825636825635;
	name 825636;
	longitude 287.985940111;
	to node825637825636;
	length 695;
	latitude 769.781155165;
	configuration 925975-LINECONFIG;
};

object underground_line {
	phases C;
	from node825637825636;
	name 825637;
	longitude 288.558273091;
	to node902721825637;
	length 39;
	latitude 770.343687548;
	configuration 925975-LINECONFIG;
};

object underground_line {
	phases C;
	from node902721825637;
	name 902721;
	longitude 289.006185857;
	to node825638902721;
	length 20;
	latitude 770.106831808;
	configuration 925975-LINECONFIG;
};

object underground_line {
	phases C;
	from node825638902721;
	name 825638;
	longitude 297.018847564;
	to node825639825638;
	length 336;
	latitude 771.557573216;
	configuration 925975-LINECONFIG;
};

object underground_line {
	phases C;
	from node825639825638;
	name 825639;
	longitude 296.819775223;
	to nodeT3285825639;
	length 160;
	latitude 766.524388739;
	configuration 925975-LINECONFIG;
};

object underground_line {
	phases C;
	from node825639825638;
	name 902741;
	longitude 324.142453963;
	to node825641902741;
	length 1299;
	latitude 772.564210111;
	configuration 925975-LINECONFIG;
};

object underground_line {
	phases C;
	from node825641902741;
	name 825641;
	longitude 322.226382686;
	to nodeT3286825641;
	length 101;
	latitude 765.873035454;
	configuration 925975-LINECONFIG;
};

object underground_line {
	phases C;
	from node825641902741;
	name 825644;
	longitude 331.632550777;
	to nodeT3287825644;
	length 542;
	latitude 758.79697022;
	configuration 925975-LINECONFIG;
};

object underground_line {
	phases C;
	from node825641902741;
	name 902742;
	to nodeT3288902742;
	longitude 338.177053972;
	length 566;
	latitude 774.014951519;
	configuration 925975-LINECONFIG;
};

object underground_line {
	phases C;
	from node825637825636;
	name 825646;
	longitude 287.612679473;
	to node825647825646;
	length 119;
	latitude 775.140016284;
	configuration 925975-LINECONFIG;
};

object underground_line {
	phases C;
	from node825647825646;
	name 825647;
	longitude 284.626594365;
	to node825648825647;
	length 607;
	latitude 790.38760455;
	configuration 925975-LINECONFIG;
};

object underground_line {
	phases C;
	from node825648825647;
	name 825648;
	longitude 281.740045427;
	to node914744825648;
	length 339;
	latitude 799.180873899;
	configuration 925975-LINECONFIG;
};

object underground_line {
	phases C;
	from node914744825648;
	name 914744;
	longitude 281.267248618;
	to node825649914744;
	length 293;
	latitude 807.115541191;
	configuration 925975-LINECONFIG;
};

object underground_line {
	phases C;
	from node825649914744;
	name 825649;
	to node825652825649;
	longitude 280.197234788;
	length 466;
	latitude 820.853174114;
	configuration 925975-LINECONFIG;
};

object overhead_line {
	phases CN;
	from node825652825649;
	name 825652;
	longitude 289.877127347;
	to node825654825652;
	length 398;
	latitude 818.366188843;
	configuration 825694-LINECONFIG;
};

object overhead_line {
	phases CN;
	from node825654825652;
	name 825654;
	longitude 298.810498629;
	to node825656825654;
	length 362;
	latitude 819.639288446;
	configuration 825694-LINECONFIG;
};

object overhead_line {
	phases CN;
	from node825656825654;
	name 825656;
	longitude 303.96149544;
	to node825657825656;
	length 213;
	latitude 818.129333103;
	configuration 825694-LINECONFIG;
};

object overhead_line {
	phases CN;
	from node825657825656;
	name 825657;
	longitude 311.302287998;
	to node825658825657;
	length 295;
	latitude 817.922084331;
	configuration 825694-LINECONFIG;
};

object overhead_line {
	phases CN;
	from node825658825657;
	name 825658;
	longitude 322.126846515;
	to node825659825658;
	length 435;
	latitude 817.626014655;
	configuration 825694-LINECONFIG;
};

object overhead_line {
	phases C;
	from node825659825658;
	name 825659;
	longitude 322.226382686;
	to node1808-32-008825659;
	length 401;
	latitude 805.753620685;
	configuration 825694-LINECONFIG;
};

object overhead_line {
	phases CN;
	from node825652825649;
	name 825662;
	longitude 279.699553936;
	to node825663825662;
	length 207;
	latitude 826.95220942;
	configuration 825692-LINECONFIG;
};

object overhead_line {
	phases CN;
	from node825663825662;
	name 825663;
	longitude 279.575133723;
	to node825664825663;
	length 52;
	latitude 828.49177173;
	configuration 825692-LINECONFIG;
};

object overhead_line {
	phases CN;
	from node825664825663;
	name 825664;
	to node825666825664;
	longitude 279.027684787;
	length 273;
	latitude 836.544866892;
	configuration 825692-LINECONFIG;
};

object overhead_line {
	phases CN;
	from node825666825664;
	name 825666;
	longitude 278.355815637;
	to node825667825666;
	length 310;
	latitude 845.693419851;
	configuration 825692-LINECONFIG;
};

object overhead_line {
	phases C;
	from node825667825666;
	name 825667;
	longitude 273.005746485;
	to node1808-32-014825667;
	length 215;
	latitude 845.693419851;
	configuration 825694-LINECONFIG;
};

object overhead_line {
	phases CN;
	from node825667825666;
	name 825675;
	longitude 277.41022202;
	to node825676825675;
	length 435;
	latitude 858.513236782;
	configuration 825692-LINECONFIG;
};

object overhead_line {
	phases CN;
	from node825676825675;
	name 825676;
	longitude 276.514396487;
	to node825678825676;
	length 409;
	latitude 870.563272557;
	configuration 825692-LINECONFIG;
};

object overhead_line {
	phases CN;
	from node825678825676;
	name 825678;
	longitude 276.016715636;
	to node910316825678;
	length 227;
	latitude 877.284054181;
	configuration 825692-LINECONFIG;
};

object overhead_line {
	phases CN;
	from node910316825678;
	name 910316;
	to node825679910316;
	longitude 275.817643295;
	length 94;
	latitude 880.037502159;
	configuration 825692-LINECONFIG;
};

object overhead_line {
	phases CN;
	from node825679910316;
	name 825679;
	longitude 276.041599679;
	to node914175825679;
	length 183;
	latitude 885.455577213;
	configuration 825692-LINECONFIG;
};

object overhead_line {
	phases CN;
	from node914175825679;
	name 914175;
	longitude 276.365092232;
	to node825681914175;
	length 243;
	latitude 892.650070317;
	configuration 825692-LINECONFIG;
};

object overhead_line {
	phases CN;
	from node825681914175;
	name 825681;
	longitude 276.464628402;
	to node825682825681;
	length 144;
	latitude 896.913473637;
	configuration 825692-LINECONFIG;
};

object overhead_line {
	phases CN;
	from node825682825681;
	name 825682;
	longitude 267.108228397;
	to node825684825682;
	length 1855;
	latitude 950.679726629;
	configuration 825692-LINECONFIG;
};

object overhead_line {
	phases CN;
	from node825684825682;
	name 825684;
	longitude 267.033576269;
	to node957975825684;
	length 577;
	latitude 967.76294688;
	configuration 825692-LINECONFIG;
};

object overhead_line {
	phases CN;
	from node957975825684;
	name 957975;
	longitude 266.983808184;
	to node825685957975;
	length 308;
	latitude 976.881892872;
	configuration 825692-LINECONFIG;
};

object overhead_line {
	phases CN;
	from node825685957975;
	name 825685;
	longitude 266.983808184;
	to node825686825685;
	length 164;
	latitude 981.737435543;
	configuration 825692-LINECONFIG;
};

object overhead_line {
	phases CN;
	from node825686825685;
	name 825686;
	to node914182825686;
	longitude 267.058460311;
	length 488;
	latitude 996.185635686;
	configuration 825692-LINECONFIG;
};

object overhead_line {
	phases CN;
	from node914182825686;
	name 914182;
	longitude 267.083344354;
	to node825687914182;
	length 189;
	latitude 1001.78135254;
	configuration 825692-LINECONFIG;
};

object underground_line {
	phases C;
	from node825687914182;
	name 825687;
	longitude 268.601270951;
	to nodeFCMA4-F011x1825687;
	length 62;
	latitude 1001.39646197;
	configuration 825688-LINECONFIG;
};

object fuse {
	phases C;
	from nodeFCMA4-F011x1825687;
	name FCMA4-F011x1;
	current_limit 9999.0 A;
	longitude 268.601270951;
	to node825688FCMA4-F011x1;
	latitude 1001.39646197;
};

object line_configuration {
	name 825688-LINECONFIG;
	spacing 825117-LINESPACING;
	conductor_C 825688-LINECONFIGunderground_line_conductor32005;
};

object underground_line_conductor {
	conductor_gmr 0.00883;
	conductor_resistance 1.76352;
	shield_resistance 0.000000;
	neutral_gmr 0.0317574;
	neutral_strands 6;
	conductor_diameter 0.097400;
	name 825688-LINECONFIGunderground_line_conductor32005;
	insulation_relative_permitivitty 2.4;
	outer_diameter 0.903000;
	neutral_resistance 14.087220;
	neutral_diameter 0.128000;
	shield_gmr 0.000000;
};

object underground_line {
	phases C;
	from node825688FCMA4-F011x1;
	name 825688;
	longitude 277.236033722;
	to node1808-33-002825688;
	length 354;
	latitude 999.294367274;
	configuration 825688-LINECONFIG;
};

object overhead_line {
	phases CN;
	from node825687914182;
	name 825690;
	longitude 267.083344354;
	to node825692825690;
	length 312;
	latitude 1011.04833337;
	configuration 825692-LINECONFIG;
};

object line_configuration {
	name 825692-LINECONFIG;
	spacing 825694-LINESPACING;
	conductor_N 825692_conductor_N;
	conductor_C 825692_conductor_N;
};

object overhead_line_conductor {
	diameter 0.721;
	name 825692_conductor_N;
	geometric_mean_radius 0.00479;
	resistance 2.44;
};

object overhead_line {
	phases CN;
	from node825692825690;
	name 825692;
	to node825693825692;
	longitude 267.257532652;
	length 345;
	latitude 1021.26273716;
	configuration 825692-LINECONFIG;
};

object overhead_line {
	phases CN;
	from node825693825692;
	name 825693;
	longitude 277.31068585;
	to node825694825693;
	length 469;
	latitude 1028.30919543;
	configuration 825694-LINECONFIG;
};

object line_configuration {
	name 825694-LINECONFIG;
	spacing 825694-LINESPACING;
	conductor_N 825694_conductor_N;
	conductor_C 825694_conductor_N;
};

object line_spacing {
	distance_AN 0.000000;
	name 825694-LINESPACING;
	distance_CN 4.437842;
	distance_BC 0.000000;
	distance_AB 0.000000;
	distance_AC 0.000000;
	distance_BN 0.000000;
};

object overhead_line_conductor {
	diameter 0.721;
	name 825694_conductor_N;
	geometric_mean_radius 0.00437;
	resistance 2.57;
};

object overhead_line {
	phases C;
	from node825694825693;
	name 825694;
	longitude 279.201873085;
	to node1808-33-003825694;
	length 140;
	latitude 1024.31225482;
	configuration 825694-LINECONFIG;
};

object overhead_line {
	phases CN;
	from node825693825692;
	name 825696;
	longitude 267.481489035;
	to node825698825696;
	length 936;
	latitude 1048.97485875;
	configuration 825692-LINECONFIG;
};

object overhead_line {
	phases CN;
	from node825698825696;
	name 825698;
	longitude 262.728636904;
	to node825701825698;
	length 323;
	latitude 1056.70227727;
	configuration 825692-LINECONFIG;
};

object overhead_line {
	phases CN;
	from node825701825698;
	name 825701;
	longitude 262.156303925;
	to node825702825701;
	length 961;
	latitude 1085.15457304;
	configuration 825692-LINECONFIG;
};

object underground_line {
	phases C;
	from node825702825701;
	name 825702;
	to nodeFCMA4-F047x1825702;
	longitude 260.240232648;
	length 77;
	latitude 1085.15457304;
	configuration 925975-LINECONFIG;
};

object fuse {
	phases C;
	from nodeFCMA4-F047x1825702;
	name FCMA4-F047x1;
	current_limit 9999.0 A;
	longitude 260.240232648;
	to node825703FCMA4-F047x1;
	latitude 1085.15457304;
};

object underground_line {
	phases C;
	from node825703FCMA4-F047x1;
	name 825703;
	longitude 255.860641156;
	to node825704825703;
	length 176;
	latitude 1085.15457304;
	configuration 925975-LINECONFIG;
};

object underground_line {
	phases C;
	from node825704825703;
	name 825704;
	longitude 248.54473264;
	to node1808-27-003825704;
	length 294;
	latitude 1085.15457304;
	configuration 925975-LINECONFIG;
};

object overhead_line {
	phases CN;
	from node825702825701;
	name 954735;
	longitude 262.181187968;
	to node912858954735;
	length 248;
	latitude 1092.49710098;
	configuration 825692-LINECONFIG;
};

object underground_line {
	phases C;
	from node912858954735;
	name 912858;
	to nodeF7633x1912858;
	longitude 263.798650735;
	length 59;
	latitude 1092.26024524;
	configuration 925975-LINECONFIG;
};

object fuse {
	phases C;
	from nodeF7633x1912858;
	name F7633x1;
	current_limit 9999.0 A;
	longitude 263.798650735;
	to node912863F7633x1;
	latitude 1092.26024524;
};

object underground_line {
	phases C;
	from node912863F7633x1;
	name 912863;
	longitude 275.543918827;
	to nodeT4107912863;
	length 556;
	latitude 1091.66810589;
	configuration 925975-LINECONFIG;
};

object overhead_line {
	phases CN;
	from node912858954735;
	name 954736;
	longitude 262.181187968;
	to node825707954736;
	length 200;
	latitude 1098.41849449;
	configuration 825692-LINECONFIG;
};

object overhead_line {
	phases CN;
	from node825707954736;
	name 825707;
	longitude 262.206072011;
	to node825709825707;
	length 363;
	latitude 1109.19543066;
	configuration 825692-LINECONFIG;
};

object overhead_line {
	phases CN;
	from node825709825707;
	name 825709;
	longitude 262.230956053;
	to node825710825709;
	length 410;
	latitude 1121.33428734;
	configuration 825692-LINECONFIG;
};

object overhead_line {
	phases CN;
	from node825710825709;
	name 825710;
	to node825711825710;
	longitude 262.330492223;
	length 1505;
	latitude 1165.89277343;
	configuration 825692-LINECONFIG;
};

object overhead_line {
	phases CN;
	from node825711825710;
	name 825711;
	longitude 262.156303925;
	to node825713825711;
	length 520;
	latitude 1181.28839654;
	configuration 825692-LINECONFIG;
};

object overhead_line {
	phases CN;
	from node825713825711;
	name 825713;
	longitude 262.156303925;
	to node825714825713;
	length 374;
	latitude 1192.36140238;
	configuration 825692-LINECONFIG;
};

object overhead_line {
	phases C;
	from node825714825713;
	name 825714;
	longitude 262.255840096;
	to nodeNO448x1-A825714;
	length 258;
	latitude 1200.0;
	configuration 825692-LINECONFIG;
};

object underground_line {
	phases C;
	from node825711825710;
	name 825715;
	longitude 260.513957116;
	to nodeFCMA4-F099x1825715;
	length 73;
	latitude 1165.89277343;
	configuration 925975-LINECONFIG;
};

object fuse {
	phases C;
	from nodeFCMA4-F099x1825715;
	name FCMA4-F099x1;
	current_limit 9999.0 A;
	longitude 260.513957116;
	to node825716FCMA4-F099x1;
	latitude 1165.89277343;
};

object underground_line {
	phases C;
	from node825716FCMA4-F099x1;
	name 825716;
	longitude 248.743804981;
	to node1808-0124825716;
	length 473;
	latitude 1165.89277343;
	configuration 925975-LINECONFIG;
};

object overhead_line {
	phases CN;
	from node825685957975;
	name 825720;
	longitude 275.56880287;
	to node825721825720;
	length 345;
	latitude 976.645037132;
	configuration 825694-LINECONFIG;
};

object overhead_line {
	phases CN;
	from node825721825720;
	name 825721;
	to node825723825721;
	longitude 285.472651812;
	length 398;
	latitude 976.348967457;
	configuration 825694-LINECONFIG;
};

object overhead_line {
	phases CN;
	from node825723825721;
	name 825723;
	longitude 298.213281607;
	to node825724825723;
	length 512;
	latitude 976.112111717;
	configuration 825694-LINECONFIG;
};

object overhead_line {
	phases CN;
	from node825724825723;
	name 825724;
	longitude 326.456669922;
	to node825727825724;
	length 1135;
	latitude 976.112111717;
	configuration 825694-LINECONFIG;
};

object overhead_line {
	phases CN;
	from node825727825724;
	name 825727;
	longitude 326.033641199;
	to node825728825727;
	length 424;
	latitude 988.66546594;
	configuration 825694-LINECONFIG;
};

object overhead_line {
	phases C;
	from node825728825727;
	name 825728;
	longitude 332.304419926;
	to node1808-33-009825728;
	length 252;
	latitude 988.931928647;
	configuration 825694-LINECONFIG;
};

object underground_line {
	phases C;
	from node825721825720;
	name 825732;
	longitude 277.932786914;
	to nodeF18558x1825732;
	length 101;
	latitude 977.681280995;
	configuration 925975-LINECONFIG;
};

object fuse {
	phases C;
	from nodeF18558x1825732;
	name F18558x1;
	current_limit 9999.0 A;
	longitude 277.932786914;
	to node825733F18558x1;
	latitude 977.681280995;
};

object underground_line {
	phases C;
	from node825733F18558x1;
	name 825733;
	to node1808-0136825733;
	longitude 277.932786914;
	length 200;
	latitude 983.602674496;
	configuration 925975-LINECONFIG;
};

object underground_line {
	phases C;
	from node957975825684;
	name 957977;
	longitude 266.635431588;
	to nodeF21023x1957977;
	length 15;
	latitude 967.76294688;
	configuration 925975-LINECONFIG;
};

object fuse {
	phases C;
	from nodeF21023x1957977;
	name F21023x1;
	current_limit 9999.0 A;
	longitude 266.635431588;
	to node957978F21023x1;
	latitude 967.76294688;
};

object underground_line {
	phases C;
	from node957978F21023x1;
	name 957978;
	longitude 263.723998607;
	to nodeT21024957978;
	length 105;
	latitude 967.52609114;
	configuration 925975-LINECONFIG;
};

object underground_line {
	phases C;
	from node910316825678;
	name 910318;
	longitude 275.693223083;
	to nodeF2626x1910318;
	length 13;
	latitude 877.284054181;
	configuration 925975-LINECONFIG;
};

object fuse {
	phases C;
	from nodeF2626x1910318;
	name F2626x1;
	current_limit 9999.0 A;
	longitude 275.693223083;
	to node910320F2626x1;
	latitude 877.284054181;
};

object underground_line {
	phases C;
	from node910320F2626x1;
	name 910320;
	longitude 264.968200736;
	to nodeT2627910320;
	length 508;
	latitude 879.534183711;
	configuration 925975-LINECONFIG;
};

object underground_line {
	phases C;
	from node825676825675;
	name 825735;
	longitude 275.966947551;
	to nodeFCMA4-F110x1825735;
	length 58;
	latitude 858.513236782;
	configuration 925975-LINECONFIG;
};

object fuse {
	phases C;
	from nodeFCMA4-F110x1825735;
	name FCMA4-F110x1;
	current_limit 9999.0 A;
	longitude 275.966947551;
	to node825736FCMA4-F110x1;
	latitude 858.513236782;
};

object underground_line {
	phases C;
	from node825736FCMA4-F110x1;
	name 825736;
	longitude 256.880886901;
	to node825737825736;
	length 767;
	latitude 858.513236782;
	configuration 925975-LINECONFIG;
};

object underground_line {
	phases C;
	from node825737825736;
	name 825737;
	longitude 247.673791151;
	to node825738825737;
	length 370;
	latitude 858.513236782;
	configuration 925975-LINECONFIG;
};

object underground_line {
	phases C;
	from node825738825737;
	name 825738;
	longitude 245.807487958;
	to node1808-0133825738;
	length 291;
	latitude 850.193678912;
	configuration 925975-LINECONFIG;
};

object underground_line {
	phases C;
	from node825738825737;
	name 825740;
	longitude 241.975345402;
	to nodeT29059825740;
	length 296;
	latitude 864.079346673;
	configuration 925975-LINECONFIG;
};

object underground_line {
	phases C;
	from node825737825736;
	name 825742;
	longitude 255.462496474;
	to node1808-0137825742;
	length 92;
	latitude 856.381535121;
	configuration 925975-LINECONFIG;
};

object underground_line {
	phases C;
	from node825737825736;
	name 916883;
	to node1808-0160916883;
	longitude 256.930654986;
	length 157;
	latitude 863.16153068;
	configuration 925975-LINECONFIG;
};

object underground_line {
	phases C;
	from node825663825662;
	name 825745;
	longitude 279.301409255;
	to nodeF14064x1825745;
	length 50;
	latitude 827.18906516;
	configuration 925975-LINECONFIG;
};

object fuse {
	phases C;
	from nodeF14064x1825745;
	name F14064x1;
	current_limit 9999.0 A;
	longitude 279.301409255;
	to node825746F14064x1;
	latitude 827.18906516;
};

object underground_line {
	phases C;
	from node825746F14064x1;
	name 825746;
	longitude 279.152105;
	to node929700825746;
	length 10;
	latitude 827.30749303;
	configuration 925975-LINECONFIG;
};

object underground_line {
	phases C;
	from node929700825746;
	name 929700;
	longitude 274.623209252;
	to node1808-32-024929700;
	length 208;
	latitude 830.297796748;
	configuration 925975-LINECONFIG;
};

object underground_line {
	phases C;
	from node929700825746;
	name 929701;
	longitude 279.674669894;
	to nodeT14065929701;
	length 55;
	latitude 827.929239348;
	configuration 925975-LINECONFIG;
};

object underground_line {
	phases C;
	from node825649914744;
	name 825749;
	longitude 280.794451809;
	to node1808-0082825749;
	length 51;
	latitude 808.507068663;
	configuration 925975-LINECONFIG;
};

object underground_line {
	phases C;
	from node825649914744;
	name 899862;
	longitude 268.103590099;
	to node899863899862;
	length 721;
	latitude 803.79956083;
	configuration 925975-LINECONFIG;
};

object underground_line {
	phases C;
	from node899863899862;
	name 899863;
	longitude 259.593247541;
	to node899864899863;
	length 385;
	latitude 799.328908737;
	configuration 925975-LINECONFIG;
};

object underground_line {
	phases C;
	from node899864899863;
	name 899864;
	longitude 253.795265622;
	to node933796899864;
	length 211;
	latitude 796.575460758;
	configuration 925975-LINECONFIG;
};

object underground_line {
	phases C;
	from node933796899864;
	name 933796;
	to node899881933796;
	longitude 246.628661363;
	length 411;
	latitude 800.187510794;
	configuration 925975-LINECONFIG;
};

object underground_line {
	phases C;
	from node899881933796;
	name 899881;
	longitude 237.272261357;
	to node899882899881;
	length 485;
	latitude 804.362093213;
	configuration 925975-LINECONFIG;
};

object underground_line {
	phases C;
	from node899882899881;
	name 899882;
	longitude 234.858509228;
	to node899901899882;
	length 194;
	latitude 800.217117762;
	configuration 925975-LINECONFIG;
};

object underground_line {
	phases C;
	from node899901899882;
	name 899901;
	longitude 231.623583694;
	to node824783899901;
	length 376;
	latitude 790.683674225;
	configuration 925975-LINECONFIG;
};

object underground_line {
	phases C;
	from node824783899901;
	name 824783;
	longitude 232.295452843;
	to node1808-0103824783;
	length 20;
	latitude 790.357997582;
	configuration 925975-LINECONFIG;
};

object underground_line {
	phases C;
	from node824783899901;
	name 899902;
	longitude 231.324975183;
	to node930246899902;
	length 570;
	latitude 781.623942168;
	configuration 925975-LINECONFIG;
};

object underground_line {
	phases C;
	from node930246899902;
	name 930246;
	to node824769930246;
	longitude 231.797771992;
	length 20;
	latitude 779.521847475;
	configuration 925975-LINECONFIG;
};

object underground_line {
	phases C;
	from node824769930246;
	name 824769;
	longitude 242.721866679;
	to node910323824769;
	length 483;
	latitude 779.166563865;
	configuration 925975-LINECONFIG;
};

object underground_line {
	phases C;
	from node910323824769;
	name 910323;
	longitude 249.365906045;
	to node923318910323;
	length 300;
	latitude 778.426389677;
	configuration 925975-LINECONFIG;
};

object underground_line {
	phases C;
	from node923318910323;
	name 923318;
	longitude 254.243178389;
	to nodeT4170923318;
	length 270;
	latitude 775.140016284;
	configuration 925975-LINECONFIG;
};

object underground_line {
	phases C;
	from node824769930246;
	name 824788;
	longitude 225.626529435;
	to node930243824788;
	length 817;
	latitude 754.651994769;
	configuration 925975-LINECONFIG;
};

object underground_line {
	phases C;
	from node930243824788;
	name 930243;
	longitude 210.472147511;
	to node911160930243;
	length 780;
	latitude 756.043522242;
	configuration 925975-LINECONFIG;
};

object underground_line {
	phases C;
	from node911160930243;
	name 911160;
	longitude 203.9774124;
	to node911157911160;
	length 296;
	latitude 755.332955022;
	configuration 925975-LINECONFIG;
};

object underground_line {
	phases C;
	from node911157911160;
	name 911157;
	longitude 203.10647091;
	to nodeT4037911157;
	length 519;
	latitude 740.470257334;
	configuration 925975-LINECONFIG;
};

object underground_line {
	phases C;
	from node911157911160;
	name 911159;
	to node824796911159;
	longitude 204.027180485;
	length 258;
	latitude 763.682119859;
	configuration 925975-LINECONFIG;
};

object underground_line {
	phases C;
	from node824796911159;
	name 824796;
	longitude 201.215283675;
	to node949119824796;
	length 151;
	latitude 763.682119859;
	configuration 925975-LINECONFIG;
};

object underground_line {
	phases C;
	from node949119824796;
	name 949119;
	longitude 201.538776229;
	to node12900x1-Ax1949119;
	length 659;
	latitude 783.696429893;
	configuration 925975-LINECONFIG;
};

object underground_line {
	phases C;
	from node930243824788;
	name 930244;
	to node824792930244;
	longitude 227.368412415;
	length 20;
	latitude 753.704571809;
	configuration 925975-LINECONFIG;
};

object underground_line {
	phases C;
	from node824792930244;
	name 824792;
	longitude 231.573815609;
	to node945215824792;
	length 248;
	latitude 749.559596358;
	configuration 925975-LINECONFIG;
};

object underground_line {
	phases C;
	from node945215824792;
	name 945215;
	longitude 241.378128381;
	to node1808-0045945215;
	length 465;
	latitude 743.667809825;
	configuration 925975-LINECONFIG;
};

object underground_line {
	phases C;
	from node824769930246;
	name 930245;
	longitude 230.802410289;
	to node824767930245;
	length 108;
	latitude 778.367175742;
	configuration 925975-LINECONFIG;
};

object overhead_line {
	phases CN;
	from node824767930245;
	name 824767;
	longitude 224.556515604;
	to node824765824767;
	length 365;
	latitude 786.420270904;
	configuration 825694-LINECONFIG;
};

object overhead_line {
	phases C;
	from node824765824767;
	name 824765;
	longitude 220.201808155;
	to node1808-29-026824765;
	length 246;
	latitude 791.512669315;
	configuration 825694-LINECONFIG;
};

object overhead_line {
	phases CN;
	from node824767930245;
	name 824785;
	longitude 230.976598587;
	to node824786824785;
	length 245;
	latitude 771.113468703;
	configuration 825694-LINECONFIG;
};

object overhead_line {
	phases C;
	from node824786824785;
	name 824786;
	longitude 234.933161355;
	to node1808-29-029824786;
	length 185;
	latitude 768.30080679;
	configuration 825694-LINECONFIG;
};

object underground_line {
	phases C;
	from node914744825648;
	name 914745;
	to node914746914745;
	longitude 282.660755002;
...